20

H 1.97915 2.11493 1.7808
Cl 1.75676 0.227037 3.92919
Cl 3.37867 10.6962 1.91802
Cl 3.53972 1.63234 3.69961
Cl 5.511 1.71638 2.04381
Cl 5.50219 0.255249 3.99014
Cl 7.19482 10.6882 1.91677
Cl 7.46868 1.91388 3.62173
Cl 9.2904 1.59401 1.72032
Cl 9.04308 0.198614 3.94875
Cl 0.200501 10.4803 1.61106
H 0.100249 1.7828 3.65054
H 2.06414 5.46852 1.60249
H 2.2238 3.85221 3.56313
H 3.91898 3.48011 1.87193
H 3.97738 5.26081 3.40031
H 5.79751 4.88278 1.71936
H 5.79856 3.24213 3.86184
H 7.61828 3.15304 1.8779
H 7.38778 5.12069 3.24733
15

H 9.2681 5.72919 1.82937
H 9.21028 3.75611 3.51017
H 10.7986 3.71635 1.65842
H 0.291296 5.52753 3.52504
H 1.91919 9.10794 2.73303
H 1.85195 7.13158 3.62498
H 3.49182 7.45401 1.90574
H 3.8503 8.94346 3.71659
H 5.44454 9.03961 1.73415
Cl 5.50601 6.97105 3.72497
Cl 7.58388 7.13512 1.62996
Cl 6.93408 9.29319 3.77684
Cl 8.91199 9.13284 1.48529
Cl 8.86241 7.37872 3.85101
Cl 0.144358 7.37812 1.89404
24

Cl 10.46 9.09151 3.96096
Cl 1.64167 1.75931 5.56882
Cl 1.85543 0.0406172 7.55525
Cl 3.18034 0.167586 5.84669
Cl 3.49855 1.98297 7.62413
Cl 5.30431 1.78284 5.80141
Cl 5.36633 0.014241 7.3953
Cl 7.1492 10.5106 5.79721
Cl 7.41837 1.88752 7.12488
Cl 9.12186 2.10622 5.26233
Cl 9.13086 0.377512 7.15004
H 0.109019 0.188348 5.32693
H 0.073469 2.02951 7.30401
H 1.78559 5.17949 5.32752
H 1.78047 3.55663 7.41137
H 3.54478 3.68361 5.48864
H 3.49766 5.61625 7.27479
H 5.5804 5.3074 4.86963
H 5.51824 3.81406 7.20237
H 7.4538 3.86803 5.38591
H 7.21157 5.4225 6.87283
H 8.99552 5.46251 5.13372
H 9.26898 3.6706 7.27489
H 0.0173841 3.42872 5.45892
